10
-1.5591230818168702e+02 frame 6   xyz file generated by TeraChem
     C    -1.7248013616    4.2492604847    0.4424195581
     C    -1.7453015045    2.9313166383    0.2404659138
     H    -1.1187328551    4.6958637115    1.2326325977
     H    -2.3139835456    4.9261326794   -0.1740284820
     C    -0.9800689552    1.9676602642    1.0314961970
     H    -2.3655674738    2.5215571590   -0.5612541276
     C    -1.0004943050    0.6495016167    0.8296546831
     H    -0.3597216345    2.3773063172    1.8332247646
     H    -1.6065262822    0.2027392647    0.0394974753
     H    -0.4112820822   -0.0272981356    1.4461414201
