5
-2.6444579087293772e+02 frame 20   xyz file generated by TeraChem
     C    -4.8007538432    1.3042099597    0.0188366257
     O    -3.3899080165    1.0712727808    0.0609846872
     H    -3.0331630574    1.9650296492    0.0854138701
     O    -5.1121560387    2.5175007366    0.0335406508
     O    -5.4849990434    0.2750368735   -0.0291658339
