84
-2030.50029 frame 0   xyz file generated by terachem
   C      12.7493554616    1.6722606813    7.7118464520
   C      10.4069979265    1.1053745451    7.5062548115
   C      10.2231737830    1.6223677154    8.8426314317
   C      11.3907829926    1.8793369589    9.6900193037
   C      14.0174412334    0.9097969133    7.3676017279
   H      14.8807545500    1.4197816377    7.8392356453
   H      14.1610525436    0.8950260411    6.3006323845
   H      13.9225752713   -0.1073679241    7.7604576722
   C      12.7655363731    3.1172907552    7.2370754996
   H      11.8245173861    3.6247439085    7.5120888170
   H      12.8720984825    3.1717219532    6.1560227262
   H      13.6204185737    3.6527830421    7.6915382148
   C       8.9801390804    1.7626856248    9.4850543530
   H       9.0939121901    1.9786334231   10.5381869510
   C       7.6505876937    1.6544558963    9.0472723503
   C       6.6527883218    1.7594578779   10.0302918966
   H       6.9760203817    1.9727570082   11.0406304846
   C       5.2936255115    1.5577258112    9.7968255291
   H       4.9687381143    1.3465016851    8.7993025980
   C       4.4038854015    1.6103361953   10.8590579188
   H       4.8026532471    1.8489267697   11.8363890180
   C       2.3709651758    1.1880197840    9.5607456756
   H       1.4458331046    0.6692429409    9.7775382481
   H       2.9677144835    0.5213562279    8.9243124443
   C       2.0846859964    2.5119015422    8.8476100832
   H       1.4308270588    3.1507458252    9.4499410978
   H       1.5728027905    2.3045320192    7.8925266484
   H       3.0195772418    3.0528032745    8.6487872308
   C       2.2993730425    1.4049130303   12.0651399710
   H       1.3909523606    1.9848281862   11.8694858003
   H       2.8623539961    1.9426619010   12.8236170064
   C       1.9528511597   -0.0049946266   12.5470559793
   H       1.3681475761   -0.5488739806   11.8143296853
   H       1.3493186072    0.0435242886   13.4721694921
   H       2.8655850909   -0.5612442641   12.7643528704
   N       3.0845186995    1.4023334869   10.8298216512
   O       9.5153630402    0.7320975599    6.7362738869
   O      11.3572870814    2.2641380174   10.8453975557
   O      12.6197171078    1.6281164932    9.1260210222
   O      11.6840142957    0.9688045872    7.0531229366
   O       7.2602144159    1.4554786702    7.7722341212
   H       8.0524157209    1.1391681889    7.2533192878
   C       0.0721255859    5.1440650643   14.3212871095
   C       2.2931897436    4.3471160563   13.8854484266
   C       2.0630514254    4.7196287975   12.5089239728
   C       0.6808717792    4.8013394716   12.0282353292
   C      -1.0620376490    4.6760166910   15.2120260934
   H      -1.9864136495    5.1775661497   14.9512988351
   H      -0.8237605471    4.8919830593   16.2506066461
   H      -1.1996653751    3.6034515311   15.0925308741
   C       0.3480311879    6.6435311224   14.4384669117
   H       1.1593029804    6.9344074310   13.7845241859
   H       0.6006656355    6.8770407778   15.4613834493
   H      -0.5307052397    7.1984991760   14.1514102167
   C       3.0560721896    4.8651246728   11.5352594817
   H       2.6423816226    5.1270138902   10.5582943669
   C       4.4553275583    4.7464749041   11.5477565721
   C       5.1313045570    5.0454094220   10.3609809865
   H       4.5282516732    5.3119630100    9.5042840441
   C       6.5214920804    5.0274672073   10.2098100320
   H       7.1299630538    4.7912279068   11.0765273954
   C       7.0810671199    5.2791663764    8.9683617574
   H       6.4051990375    5.4672115044    8.1537000976
   C       9.4348592804    5.0807186360    9.6304031607
   H      10.2982833639    4.6670125432    9.1054553738
   H       9.1248689468    4.3109572812   10.3213870771
   C       9.8144840124    6.3613886242   10.3697614910
   H      10.1713666501    7.1190090750    9.6671427127
   H      10.6012957680    6.1462266011   11.0923347260
   H       8.9502846383    6.7490240172   10.9014289273
   C       8.7650265259    5.5192883749    7.2475116040
   H       9.7143922741    6.0617106597    7.2500957380
   H       8.0231160493    6.1775948448    6.7812050776
   C       8.9017142885    4.2015670333    6.4741342783
   H       9.6946640741    3.5772906930    6.8904055529
   H       9.1363509324    4.4086176990    5.4129258700
   H       7.9735846649    3.6221365442    6.5288443907
   N       8.3774488037    5.3068659014    8.6428364425
   O       3.3493636512    3.9255599824   14.3668491929
   O       0.3403163242    4.8133357228   10.8592370705
   O      -0.3008056549    4.7981325000   12.9890938769
   O       1.2319437565    4.3970496616   14.7323317825
   O       5.2127571061    4.3553305955   12.6050230178
   H       4.5957321394    4.1619800101   13.3808958764
84
-2030.49257 frame 1   xyz file generated by terachem
   C      12.7507460201    1.6748252521    7.7117756192
   C      10.4096210759    1.1057956589    7.5044673137
   C      10.2246757956    1.6236016480    8.8408981676
   C      11.3923734212    1.8780284902    9.6910618098
   C      14.0180421203    0.9062986084    7.3657739398
   H      14.8847500438    1.4420035331    7.8398166624
   H      14.1640141438    0.8983279368    6.3124193503
   H      13.9086728035   -0.1042225273    7.7811484097
   C      12.7653878558    3.1134571959    7.2360790334
   H      11.8118332256    3.6248455246    7.5050572542
   H      12.8770404263    3.1840486256    6.1607411990
   H      13.6376784851    3.6547704311    7.6818930873
   C       8.9805546403    1.7647719086    9.4847837841
   H       9.1025598648    1.9778340050   10.5337665419
   C       7.6481548604    1.6543601589    9.0426857678
   C       6.6511173032    1.7633821034   10.0318489419
   H       6.9747586674    1.9578723567   11.0421817127
   C       5.2969022112    1.5548563104    9.7940320461
   H       4.9712238426    1.3512824764    8.8065838419
   C       4.4060472091    1.6099917195   10.8561111650
   H       4.8126021135    1.8431052027   11.8272558134
   C       2.3689339344    1.1837173323    9.5600280467
   H       1.4508198550    0.6684304101    9.7664793966
   H       2.9686503243    0.5214626275    8.9160455306
   C       2.0857093613    2.5103364374    8.8488940037
   H       1.4228401122    3.1437164306    9.4492167893
   H       1.5625582116    2.2898978743    7.8928762711
   H       3.0232612576    3.0567015379    8.6542566629
   C       2.3034963499    1.4048710655   12.0674138991
   H       1.3966432665    1.9844748023   11.8585312107
   H       2.8558962899    1.9466663802   12.8264650396
   C       1.9519133414   -0.0063925089   12.5462338034
   H       1.3622436483   -0.5404822203   11.8231897915
   H       1.3395346847    0.0328893640   13.4796524098
   H       2.8662865881   -0.5542997505   12.7694325928
   N       3.0866054702    1.4067326129   10.8329912350
   O       9.5126300711    0.7299480532    6.7376997205
   O      11.3615306981    2.2628826475   10.8484077444
   O      12.6181190012    1.6291510503    9.1237556779
   O      11.6862941721    0.9687209452    7.0506330967
   O       7.2628254456    1.4558601946    7.7746573784
   H       8.0568301853    1.1483135956    7.2509963948
   C       0.0738047226    5.1444817418   14.3208284515
   C       2.2920586552    4.3457009683   13.8841523616
   C       2.0621875557    4.7224109383   12.5095665190
   C       0.6787063320    4.7980193586   12.0294258209
   C      -1.0634107867    4.6787300004   15.2108802681
   H      -1.9880390196    5.1706059707   14.9654958078
   H      -0.8213814764    4.8945334814   16.2446832636
   H      -1.2033239778    3.6095527491   15.0945531002
   C       0.3479041864    6.6470479874   14.4417107746
   H       1.1513457143    6.9344368169   13.7909962924
   H       0.5854264609    6.8641859392   15.4588891895
   H      -0.5159744780    7.1978834477   14.1504608125
   C       3.0540599635    4.8655786467   11.5396828820
   H       2.6329025821    5.1178905970   10.5544310980
   C       4.4563360147    4.7466243513   11.5487523065
   C       5.1291694647    5.0467086484   10.3604253219
   H       4.5319680981    5.3140369919    9.5048790474
   C       6.5200088730    5.0297322910   10.2076192649
   H       7.1251369453    4.7884445681   11.0795761602
   C       7.0789395689    5.2799144833    8.9643078149
   H       6.3986168208    5.4559055414    8.1651761652
   C       9.4321741550    5.0816029829    9.6279318687
   H      10.2991548651    4.6699343534    9.1061318760
   H       9.1383564062    4.3147603548   10.3144182137
   C       9.8124689952    6.3607352245   10.3683915059
   H      10.1681357573    7.1122244525    9.6592724818
   H      10.5920100131    6.1397925792   11.0911301875
   H       8.9451397920    6.7302519380   10.8929500033
   C       8.7632220716    5.5220022062    7.2497458412
   H       9.7211475160    6.0474361026    7.2579188761
   H       8.0320736986    6.1951670249    6.7824432398
   C       8.9009424529    4.1970463767    6.4736074719
   H       9.6892800990    3.5669761256    6.8933876097
   H       9.1364900038    4.4108928166    5.4018534601
   H       7.9668988503    3.6220534198    6.5246802764
   N       8.3769667153    5.3085084927    8.6414990105
   O       3.3467732953    3.9240708632   14.3674077819
   O       0.3394055031    4.8149037532   10.8602508167
   O      -0.3022133592    4.7969673199   12.9902552685
   O       1.2325051385    4.3962983988   14.7340542039
   O       5.2179813428    4.3577577240   12.6059151303
   H       4.5923638929    4.1583125240   13.3917509754
