6
-152.84657 frame 0   xyz file generated by terachem
   O       0.7270274483   -1.3799754689   -0.3754544356
   H      -0.0236015315   -0.8605529672   -0.6129047757
   H       1.4442237271   -0.9821769524   -0.9338467358
   O      -1.3214341814    0.3856748469   -0.8287739615
   H      -1.9363654193    0.6740605160   -1.5002305948
   H      -1.2062845294    1.1688283151   -0.2946516146
6
-152.84501 frame 1   xyz file generated by terachem
   O       0.7294563499   -1.3761392104   -0.3751442223
   H      -0.0345682599   -0.8861976785   -0.6179637329
   H       1.4241741170   -0.9589589613   -0.9375217018
   O      -1.3188838410    0.3842761009   -0.8315472426
   H      -1.9531444643    0.6495425126   -1.4574296938
   H      -1.2375133309    1.1570879491   -0.2896279239
